LAMMPS (12 Dec 2018)
units           real
atom_style      full

#lj/class2/coul/long 9.5
pair_style      zero 9.5
# pair_modify     tail yes
bond_style      class2
angle_style     class2
#dihedral_style	class2
#improper_style	class2
#kspace_style    ewald 5.0e-6
neighbor        3.0 bin
neigh_modify    delay 2 every 1
special_bonds   lj/coul 0.0 0.0 1.0

# Equilibrates initial systems.
read_data       Alpha_iPP_1a1b2c.data
  triclinic box = (-7.39868 -11.0641 -2.8427) to (3.87683 11.0641 16.2842) with tilt (0 3.29512 -5.4992)
  reading atoms ...
  216 atoms
  scanning bonds ...
  scanning angles ...
  reading bonds ...
  212 bonds
  reading angles ...
  408 angles

pair_coeff      * *

timestep        1
thermo_style    custom step temp pe press vol etotal
thermo          100

dump            1 all custom 100 Alpha_iPP_1a1b2c.lammpstrj id mol type xu yu zu

fix             1 all nve/limit 0.6
fix             2 all temp/rescale 1 300 300 5 0.8
velocity 	all create 300.0 498523
run             1000
  update every 1 steps, delay 2 steps, check yes
Step Temp PotEng Press Volume TotEng
0          300    3943.7992    9601.8143    4772.2737    4136.0615
Averages over the last 6 of 11 rows, steps 500 to 1000:
Temp PotEng Press Volume TotEng
300.773 183.915 920.636 4772.27 376.673
Loop time of 0.106574 on 4 procs for 1000 steps with 216 atoms

unfix		1
unfix		2

fix		1 all npt temp 300 300 100 aniso 1 1 1000
run		10000
Step Temp PotEng Press Volume TotEng
1000    301.35236    183.20721   -927.76603    4772.2737    376.33615
Averages over the last 51 of 101 rows, steps 6000 to 11000:
Temp PotEng Press Volume TotEng
301.282 187.662 -787.975 1524.61 380.746
Loop time of 1.73221 on 4 procs for 10000 steps with 216 atoms
